<?xml version="1.0" encoding="UTF-8"?>
<routes>
  <vType id="CarA" maxSpeed="5.0" sigma="0.5" />
  <vType id="CarB" maxSpeed="10.0" sigma="0.5" />
  <vType id="CarC" maxSpeed="15.0" sigma="0.5" />
  <vType id="CarD" maxSpeed="20.0" sigma="0.5" />

  <route id="route1" edges="e4 e6"/>
  <route id="route2" edges="e4 e7"/>
  <route id="route3" edges="e1 e3"/>
  <route id="route4" edges="e1 e7"/>
  <route id="route5" edges="e8 e6"/>
  <route id="route6" edges="e8 e2"/>
  <route id="route7" edges="e5 e3"/>
  <route id="route8" edges="e5 e2"/>

  <vehicle depart="0" id="veh0" route="route8" type="CarA" color="1,0,0" />
  <vehicle depart="0" id="veh1" route="route7" type="CarA" color="1,0,0" />
  <vehicle depart="0" id="veh2" route="route2" type="CarA" color="1,0,0" />
  <vehicle depart="0" id="veh3" route="route4" type="CarA" color="1,0,0" />
  <vehicle depart="0" id="veh4" route="route2" type="CarA" color="1,0,0" />
  <vehicle depart="0" id="veh5" route="route8" type="CarA" color="1,0,0" />
  <vehicle depart="0" id="veh6" route="route3" type="CarA" color="1,0,0" />
  <vehicle depart="0" id="veh7" route="route5" type="CarA" color="1,0,0" />
  <vehicle depart="0" id="veh8" route="route2" type="CarA" color="1,0,0" />
  <vehicle depart="0" id="veh9" route="route6" type="CarA" color="1,0,0" />
  <vehicle depart="1" id="veh10" route="route3" type="CarA" color="1,0,0" />
  <vehicle depart="1" id="veh11" route="route4" type="CarA" color="1,0,0" />
  <vehicle depart="1" id="veh12" route="route3" type="CarA" color="1,0,0" />
  <vehicle depart="1" id="veh13" route="route4" type="CarA" color="1,0,0" />
  <vehicle depart="1" id="veh14" route="route4" type="CarA" color="1,0,0" />
  <vehicle depart="1" id="veh15" route="route7" type="CarA" color="1,0,0" />
  <vehicle depart="1" id="veh16" route="route5" type="CarA" color="1,0,0" />
  <vehicle depart="1" id="veh17" route="route3" type="CarA" color="1,0,0" />
  <vehicle depart="1" id="veh18" route="route5" type="CarA" color="1,0,0" />
  <vehicle depart="1" id="veh19" route="route1" type="CarA" color="1,0,0" />
  <vehicle depart="2" id="veh20" route="route4" type="CarA" color="1,0,0" />
  <vehicle depart="2" id="veh21" route="route1" type="CarA" color="1,0,0" />
  <vehicle depart="2" id="veh22" route="route8" type="CarA" color="1,0,0" />
  <vehicle depart="2" id="veh23" route="route6" type="CarA" color="1,0,0" />
  <vehicle depart="2" id="veh24" route="route7" type="CarA" color="1,0,0" />
  <vehicle depart="2" id="veh25" route="route3" type="CarA" color="1,0,0" />
  <vehicle depart="2" id="veh26" route="route7" type="CarA" color="1,0,0" />
  <vehicle depart="2" id="veh27" route="route4" type="CarA" color="1,0,0" />
  <vehicle depart="2" id="veh28" route="route4" type="CarA" color="1,0,0" />
  <vehicle depart="2" id="veh29" route="route8" type="CarA" color="1,0,0" />
  <vehicle depart="3" id="veh30" route="route2" type="CarA" color="1,0,0" />
  <vehicle depart="3" id="veh31" route="route3" type="CarA" color="1,0,0" />
  <vehicle depart="3" id="veh32" route="route7" type="CarA" color="1,0,0" />
  <vehicle depart="3" id="veh33" route="route3" type="CarA" color="1,0,0" />
  <vehicle depart="3" id="veh34" route="route6" type="CarA" color="1,0,0" />
  <vehicle depart="3" id="veh35" route="route8" type="CarA" color="1,0,0" />
  <vehicle depart="3" id="veh36" route="route2" type="CarA" color="1,0,0" />
  <vehicle depart="3" id="veh37" route="route1" type="CarA" color="1,0,0" />
  <vehicle depart="3" id="veh38" route="route4" type="CarA" color="1,0,0" />
  <vehicle depart="3" id="veh39" route="route3" type="CarA" color="1,0,0" />
  <vehicle depart="4" id="veh40" route="route6" type="CarA" color="1,0,0" />
  <vehicle depart="4" id="veh41" route="route6" type="CarA" color="1,0,0" />
  <vehicle depart="4" id="veh42" route="route6" type="CarA" color="1,0,0" />
  <vehicle depart="4" id="veh43" route="route8" type="CarA" color="1,0,0" />
  <vehicle depart="4" id="veh44" route="route1" type="CarA" color="1,0,0" />
  <vehicle depart="4" id="veh45" route="route2" type="CarA" color="1,0,0" />
  <vehicle depart="4" id="veh46" route="route7" type="CarA" color="1,0,0" />
  <vehicle depart="4" id="veh47" route="route5" type="CarA" color="1,0,0" />
  <vehicle depart="4" id="veh48" route="route4" type="CarA" color="1,0,0" />
  <vehicle depart="4" id="veh49" route="route3" type="CarA" color="1,0,0" />
</routes>
