<?xml version="1.0" encoding="UTF-8"?>
<routes>
  <vType id="CarA" maxSpeed="5.0" sigma="0.5" />
  <vType id="CarB" maxSpeed="10.0" sigma="0.5" />
  <vType id="CarC" maxSpeed="15.0" sigma="0.5" />
  <vType id="CarD" maxSpeed="20.0" sigma="0.5" />

  <route id="route1" edges="e4 e6"/>
  <route id="route2" edges="e4 e7"/>
  <route id="route3" edges="e1 e3"/>
  <route id="route4" edges="e1 e7"/>
  <route id="route5" edges="e8 e6"/>
  <route id="route6" edges="e8 e2"/>
  <route id="route7" edges="e5 e3"/>
  <route id="route8" edges="e5 e2"/>

  <vehicle depart="0" id="veh0" route="route8" type="CarA" color="1,0,0" />
  <vehicle depart="0" id="veh1" route="route7" type="CarA" color="1,0,0" />
  <vehicle depart="0" id="veh2" route="route2" type="CarA" color="1,0,0" />
  <vehicle depart="0" id="veh3" route="route4" type="CarA" color="1,0,0" />
  <vehicle depart="0" id="veh4" route="route2" type="CarA" color="1,0,0" />
  <vehicle depart="0" id="veh5" route="route8" type="CarA" color="1,0,0" />
  <vehicle depart="0" id="veh6" route="route3" type="CarA" color="1,0,0" />
  <vehicle depart="0" id="veh7" route="route5" type="CarA" color="1,0,0" />
  <vehicle depart="0" id="veh8" route="route2" type="CarA" color="1,0,0" />
  <vehicle depart="0" id="veh9" route="route6" type="CarA" color="1,0,0" />
  <vehicle depart="1" id="veh10" route="route3" type="CarA" color="1,0,0" />
  <vehicle depart="1" id="veh11" route="route4" type="CarA" color="1,0,0" />
  <vehicle depart="1" id="veh12" route="route3" type="CarA" color="1,0,0" />
  <vehicle depart="1" id="veh13" route="route4" type="CarA" color="1,0,0" />
  <vehicle depart="1" id="veh14" route="route4" type="CarA" color="1,0,0" />
  <vehicle depart="1" id="veh15" route="route7" type="CarA" color="1,0,0" />
  <vehicle depart="1" id="veh16" route="route5" type="CarA" color="1,0,0" />
  <vehicle depart="1" id="veh17" route="route3" type="CarA" color="1,0,0" />
  <vehicle depart="1" id="veh18" route="route5" type="CarA" color="1,0,0" />
  <vehicle depart="1" id="veh19" route="route1" type="CarA" color="1,0,0" />
  <vehicle depart="2" id="veh20" route="route4" type="CarA" color="1,0,0" />
  <vehicle depart="2" id="veh21" route="route1" type="CarA" color="1,0,0" />
  <vehicle depart="2" id="veh22" route="route8" type="CarA" color="1,0,0" />
  <vehicle depart="2" id="veh23" route="route6" type="CarA" color="1,0,0" />
  <vehicle depart="2" id="veh24" route="route7" type="CarA" color="1,0,0" />
  <vehicle depart="2" id="veh25" route="route3" type="CarA" color="1,0,0" />
  <vehicle depart="2" id="veh26" route="route7" type="CarA" color="1,0,0" />
  <vehicle depart="2" id="veh27" route="route4" type="CarA" color="1,0,0" />
  <vehicle depart="2" id="veh28" route="route4" type="CarA" color="1,0,0" />
  <vehicle depart="2" id="veh29" route="route8" type="CarA" color="1,0,0" />
  <vehicle depart="3" id="veh30" route="route2" type="CarA" color="1,0,0" />
  <vehicle depart="3" id="veh31" route="route3" type="CarA" color="1,0,0" />
  <vehicle depart="3" id="veh32" route="route7" type="CarA" color="1,0,0" />
  <vehicle depart="3" id="veh33" route="route3" type="CarA" color="1,0,0" />
  <vehicle depart="3" id="veh34" route="route6" type="CarA" color="1,0,0" />
  <vehicle depart="3" id="veh35" route="route8" type="CarA" color="1,0,0" />
  <vehicle depart="3" id="veh36" route="route2" type="CarA" color="1,0,0" />
  <vehicle depart="3" id="veh37" route="route1" type="CarA" color="1,0,0" />
  <vehicle depart="3" id="veh38" route="route4" type="CarA" color="1,0,0" />
  <vehicle depart="3" id="veh39" route="route3" type="CarA" color="1,0,0" />
  <vehicle depart="4" id="veh40" route="route6" type="CarA" color="1,0,0" />
  <vehicle depart="4" id="veh41" route="route6" type="CarA" color="1,0,0" />
  <vehicle depart="4" id="veh42" route="route6" type="CarA" color="1,0,0" />
  <vehicle depart="4" id="veh43" route="route8" type="CarA" color="1,0,0" />
  <vehicle depart="4" id="veh44" route="route1" type="CarA" color="1,0,0" />
  <vehicle depart="4" id="veh45" route="route2" type="CarA" color="1,0,0" />
  <vehicle depart="4" id="veh46" route="route7" type="CarA" color="1,0,0" />
  <vehicle depart="4" id="veh47" route="route5" type="CarA" color="1,0,0" />
  <vehicle depart="4" id="veh48" route="route4" type="CarA" color="1,0,0" />
  <vehicle depart="4" id="veh49" route="route3" type="CarA" color="1,0,0" />
  <vehicle depart="5" id="veh50" route="route6" type="CarA" color="1,0,0" />
  <vehicle depart="5" id="veh51" route="route7" type="CarA" color="1,0,0" />
  <vehicle depart="5" id="veh52" route="route4" type="CarA" color="1,0,0" />
  <vehicle depart="5" id="veh53" route="route5" type="CarA" color="1,0,0" />
  <vehicle depart="5" id="veh54" route="route5" type="CarA" color="1,0,0" />
  <vehicle depart="5" id="veh55" route="route2" type="CarA" color="1,0,0" />
  <vehicle depart="5" id="veh56" route="route7" type="CarA" color="1,0,0" />
  <vehicle depart="5" id="veh57" route="route3" type="CarA" color="1,0,0" />
  <vehicle depart="5" id="veh58" route="route5" type="CarA" color="1,0,0" />
  <vehicle depart="5" id="veh59" route="route2" type="CarA" color="1,0,0" />
  <vehicle depart="6" id="veh60" route="route2" type="CarA" color="1,0,0" />
  <vehicle depart="6" id="veh61" route="route6" type="CarA" color="1,0,0" />
  <vehicle depart="6" id="veh62" route="route5" type="CarA" color="1,0,0" />
  <vehicle depart="6" id="veh63" route="route8" type="CarA" color="1,0,0" />
  <vehicle depart="6" id="veh64" route="route1" type="CarA" color="1,0,0" />
  <vehicle depart="6" id="veh65" route="route2" type="CarA" color="1,0,0" />
  <vehicle depart="6" id="veh66" route="route7" type="CarA" color="1,0,0" />
  <vehicle depart="6" id="veh67" route="route2" type="CarA" color="1,0,0" />
  <vehicle depart="6" id="veh68" route="route2" type="CarA" color="1,0,0" />
  <vehicle depart="6" id="veh69" route="route2" type="CarA" color="1,0,0" />
  <vehicle depart="7" id="veh70" route="route5" type="CarA" color="1,0,0" />
  <vehicle depart="7" id="veh71" route="route8" type="CarA" color="1,0,0" />
  <vehicle depart="7" id="veh72" route="route7" type="CarA" color="1,0,0" />
  <vehicle depart="7" id="veh73" route="route2" type="CarA" color="1,0,0" />
  <vehicle depart="7" id="veh74" route="route7" type="CarA" color="1,0,0" />
  <vehicle depart="7" id="veh75" route="route8" type="CarA" color="1,0,0" />
  <vehicle depart="7" id="veh76" route="route3" type="CarA" color="1,0,0" />
  <vehicle depart="7" id="veh77" route="route5" type="CarA" color="1,0,0" />
  <vehicle depart="7" id="veh78" route="route4" type="CarA" color="1,0,0" />
  <vehicle depart="7" id="veh79" route="route7" type="CarA" color="1,0,0" />
  <vehicle depart="8" id="veh80" route="route8" type="CarA" color="1,0,0" />
  <vehicle depart="8" id="veh81" route="route1" type="CarA" color="1,0,0" />
  <vehicle depart="8" id="veh82" route="route5" type="CarA" color="1,0,0" />
  <vehicle depart="8" id="veh83" route="route3" type="CarA" color="1,0,0" />
  <vehicle depart="8" id="veh84" route="route5" type="CarA" color="1,0,0" />
  <vehicle depart="8" id="veh85" route="route1" type="CarA" color="1,0,0" />
  <vehicle depart="8" id="veh86" route="route4" type="CarA" color="1,0,0" />
  <vehicle depart="8" id="veh87" route="route4" type="CarA" color="1,0,0" />
  <vehicle depart="8" id="veh88" route="route3" type="CarA" color="1,0,0" />
  <vehicle depart="8" id="veh89" route="route8" type="CarA" color="1,0,0" />
  <vehicle depart="9" id="veh90" route="route5" type="CarA" color="1,0,0" />
  <vehicle depart="9" id="veh91" route="route5" type="CarA" color="1,0,0" />
  <vehicle depart="9" id="veh92" route="route5" type="CarA" color="1,0,0" />
  <vehicle depart="9" id="veh93" route="route1" type="CarA" color="1,0,0" />
  <vehicle depart="9" id="veh94" route="route4" type="CarA" color="1,0,0" />
  <vehicle depart="9" id="veh95" route="route5" type="CarA" color="1,0,0" />
  <vehicle depart="9" id="veh96" route="route3" type="CarA" color="1,0,0" />
  <vehicle depart="9" id="veh97" route="route3" type="CarA" color="1,0,0" />
  <vehicle depart="9" id="veh98" route="route7" type="CarA" color="1,0,0" />
  <vehicle depart="9" id="veh99" route="route4" type="CarA" color="1,0,0" />
  <vehicle depart="10" id="veh100" route="route4" type="CarA" color="1,0,0" />
  <vehicle depart="10" id="veh101" route="route3" type="CarA" color="1,0,0" />
  <vehicle depart="10" id="veh102" route="route3" type="CarA" color="1,0,0" />
  <vehicle depart="10" id="veh103" route="route3" type="CarA" color="1,0,0" />
  <vehicle depart="10" id="veh104" route="route4" type="CarA" color="1,0,0" />
  <vehicle depart="10" id="veh105" route="route2" type="CarA" color="1,0,0" />
  <vehicle depart="10" id="veh106" route="route2" type="CarA" color="1,0,0" />
  <vehicle depart="10" id="veh107" route="route7" type="CarA" color="1,0,0" />
  <vehicle depart="10" id="veh108" route="route6" type="CarA" color="1,0,0" />
  <vehicle depart="10" id="veh109" route="route5" type="CarA" color="1,0,0" />
  <vehicle depart="11" id="veh110" route="route5" type="CarA" color="1,0,0" />
  <vehicle depart="11" id="veh111" route="route5" type="CarA" color="1,0,0" />
  <vehicle depart="11" id="veh112" route="route6" type="CarA" color="1,0,0" />
  <vehicle depart="11" id="veh113" route="route1" type="CarA" color="1,0,0" />
  <vehicle depart="11" id="veh114" route="route7" type="CarA" color="1,0,0" />
  <vehicle depart="11" id="veh115" route="route2" type="CarA" color="1,0,0" />
  <vehicle depart="11" id="veh116" route="route2" type="CarA" color="1,0,0" />
  <vehicle depart="11" id="veh117" route="route2" type="CarA" color="1,0,0" />
  <vehicle depart="11" id="veh118" route="route5" type="CarA" color="1,0,0" />
  <vehicle depart="11" id="veh119" route="route4" type="CarA" color="1,0,0" />
  <vehicle depart="12" id="veh120" route="route1" type="CarA" color="1,0,0" />
  <vehicle depart="12" id="veh121" route="route2" type="CarA" color="1,0,0" />
  <vehicle depart="12" id="veh122" route="route8" type="CarA" color="1,0,0" />
  <vehicle depart="12" id="veh123" route="route6" type="CarA" color="1,0,0" />
  <vehicle depart="12" id="veh124" route="route2" type="CarA" color="1,0,0" />
  <vehicle depart="12" id="veh125" route="route4" type="CarA" color="1,0,0" />
  <vehicle depart="12" id="veh126" route="route2" type="CarA" color="1,0,0" />
  <vehicle depart="12" id="veh127" route="route4" type="CarA" color="1,0,0" />
  <vehicle depart="12" id="veh128" route="route6" type="CarA" color="1,0,0" />
  <vehicle depart="12" id="veh129" route="route8" type="CarA" color="1,0,0" />
  <vehicle depart="13" id="veh130" route="route8" type="CarA" color="1,0,0" />
  <vehicle depart="13" id="veh131" route="route1" type="CarA" color="1,0,0" />
  <vehicle depart="13" id="veh132" route="route2" type="CarA" color="1,0,0" />
  <vehicle depart="13" id="veh133" route="route2" type="CarA" color="1,0,0" />
  <vehicle depart="13" id="veh134" route="route3" type="CarA" color="1,0,0" />
  <vehicle depart="13" id="veh135" route="route6" type="CarA" color="1,0,0" />
  <vehicle depart="13" id="veh136" route="route3" type="CarA" color="1,0,0" />
  <vehicle depart="13" id="veh137" route="route4" type="CarA" color="1,0,0" />
  <vehicle depart="13" id="veh138" route="route4" type="CarA" color="1,0,0" />
  <vehicle depart="13" id="veh139" route="route1" type="CarA" color="1,0,0" />
  <vehicle depart="14" id="veh140" route="route1" type="CarA" color="1,0,0" />
  <vehicle depart="14" id="veh141" route="route8" type="CarA" color="1,0,0" />
  <vehicle depart="14" id="veh142" route="route5" type="CarA" color="1,0,0" />
  <vehicle depart="14" id="veh143" route="route6" type="CarA" color="1,0,0" />
  <vehicle depart="14" id="veh144" route="route8" type="CarA" color="1,0,0" />
  <vehicle depart="14" id="veh145" route="route4" type="CarA" color="1,0,0" />
  <vehicle depart="14" id="veh146" route="route7" type="CarA" color="1,0,0" />
  <vehicle depart="14" id="veh147" route="route1" type="CarA" color="1,0,0" />
  <vehicle depart="14" id="veh148" route="route5" type="CarA" color="1,0,0" />
  <vehicle depart="14" id="veh149" route="route4" type="CarA" color="1,0,0" />
  <vehicle depart="15" id="veh150" route="route5" type="CarA" color="1,0,0" />
  <vehicle depart="15" id="veh151" route="route6" type="CarA" color="1,0,0" />
  <vehicle depart="15" id="veh152" route="route5" type="CarA" color="1,0,0" />
  <vehicle depart="15" id="veh153" route="route4" type="CarA" color="1,0,0" />
  <vehicle depart="15" id="veh154" route="route3" type="CarA" color="1,0,0" />
  <vehicle depart="15" id="veh155" route="route6" type="CarA" color="1,0,0" />
  <vehicle depart="15" id="veh156" route="route7" type="CarA" color="1,0,0" />
  <vehicle depart="15" id="veh157" route="route4" type="CarA" color="1,0,0" />
  <vehicle depart="15" id="veh158" route="route2" type="CarA" color="1,0,0" />
  <vehicle depart="15" id="veh159" route="route4" type="CarA" color="1,0,0" />
  <vehicle depart="16" id="veh160" route="route4" type="CarA" color="1,0,0" />
  <vehicle depart="16" id="veh161" route="route1" type="CarA" color="1,0,0" />
  <vehicle depart="16" id="veh162" route="route5" type="CarA" color="1,0,0" />
  <vehicle depart="16" id="veh163" route="route5" type="CarA" color="1,0,0" />
  <vehicle depart="16" id="veh164" route="route2" type="CarA" color="1,0,0" />
  <vehicle depart="16" id="veh165" route="route7" type="CarA" color="1,0,0" />
  <vehicle depart="16" id="veh166" route="route2" type="CarA" color="1,0,0" />
  <vehicle depart="16" id="veh167" route="route5" type="CarA" color="1,0,0" />
  <vehicle depart="16" id="veh168" route="route3" type="CarA" color="1,0,0" />
  <vehicle depart="16" id="veh169" route="route5" type="CarA" color="1,0,0" />
  <vehicle depart="17" id="veh170" route="route5" type="CarA" color="1,0,0" />
  <vehicle depart="17" id="veh171" route="route3" type="CarA" color="1,0,0" />
  <vehicle depart="17" id="veh172" route="route4" type="CarA" color="1,0,0" />
  <vehicle depart="17" id="veh173" route="route1" type="CarA" color="1,0,0" />
  <vehicle depart="17" id="veh174" route="route8" type="CarA" color="1,0,0" />
  <vehicle depart="17" id="veh175" route="route4" type="CarA" color="1,0,0" />
  <vehicle depart="17" id="veh176" route="route4" type="CarA" color="1,0,0" />
  <vehicle depart="17" id="veh177" route="route6" type="CarA" color="1,0,0" />
  <vehicle depart="17" id="veh178" route="route4" type="CarA" color="1,0,0" />
  <vehicle depart="17" id="veh179" route="route1" type="CarA" color="1,0,0" />
  <vehicle depart="18" id="veh180" route="route1" type="CarA" color="1,0,0" />
  <vehicle depart="18" id="veh181" route="route8" type="CarA" color="1,0,0" />
  <vehicle depart="18" id="veh182" route="route6" type="CarA" color="1,0,0" />
  <vehicle depart="18" id="veh183" route="route5" type="CarA" color="1,0,0" />
  <vehicle depart="18" id="veh184" route="route4" type="CarA" color="1,0,0" />
  <vehicle depart="18" id="veh185" route="route8" type="CarA" color="1,0,0" />
  <vehicle depart="18" id="veh186" route="route3" type="CarA" color="1,0,0" />
  <vehicle depart="18" id="veh187" route="route2" type="CarA" color="1,0,0" />
  <vehicle depart="18" id="veh188" route="route3" type="CarA" color="1,0,0" />
  <vehicle depart="18" id="veh189" route="route4" type="CarA" color="1,0,0" />
  <vehicle depart="19" id="veh190" route="route6" type="CarA" color="1,0,0" />
  <vehicle depart="19" id="veh191" route="route6" type="CarA" color="1,0,0" />
  <vehicle depart="19" id="veh192" route="route4" type="CarA" color="1,0,0" />
  <vehicle depart="19" id="veh193" route="route2" type="CarA" color="1,0,0" />
  <vehicle depart="19" id="veh194" route="route3" type="CarA" color="1,0,0" />
  <vehicle depart="19" id="veh195" route="route5" type="CarA" color="1,0,0" />
  <vehicle depart="19" id="veh196" route="route8" type="CarA" color="1,0,0" />
  <vehicle depart="19" id="veh197" route="route4" type="CarA" color="1,0,0" />
  <vehicle depart="19" id="veh198" route="route1" type="CarA" color="1,0,0" />
  <vehicle depart="19" id="veh199" route="route2" type="CarA" color="1,0,0" />
</routes>
