<?xml version="1.0" encoding="UTF-8"?>

<!-- generated on 2020年12月14日 星期一 08时58分56秒 by Eclipse SUMO netedit Version 1.4.0
<configuration xmlns:xsi="http://www.w3.org/2001/XMLSchema-instance" xsi:noNamespaceSchemaLocation="http://sumo.dlr.de/xsd/netconvertConfiguration.xsd">

    <input>
        <sumo-net-file value="/home/mak/Code/ns3-wave/cross/cross.net.xml"/>
    </input>

    <output>
        <output-file value="/home/mak/Code/ns3-wave/cross/cross.net.xml"/>
    </output>

    <processing>
        <geometry.min-radius.fix.railways value="false"/>
        <geometry.max-grade.fix value="false"/>
        <offset.disable-normalization value="true"/>
        <lefthand value="false"/>
    </processing>

    <junctions>
        <no-turnarounds value="true"/>
        <junctions.corner-detail value="5"/>
        <junctions.limit-turn-speed value="5.5"/>
        <rectangular-lane-cut value="false"/>
    </junctions>

    <pedestrian>
        <walkingareas value="false"/>
    </pedestrian>

    <report>
        <aggregate-warnings value="5"/>
    </report>

</configuration>
-->

<net version="1.3" junctionCornerDetail="5" limitTurnSpeed="5.50" xmlns:xsi="http://www.w3.org/2001/XMLSchema-instance" xsi:noNamespaceSchemaLocation="http://sumo.dlr.de/xsd/net_file.xsd">

    <location netOffset="0.00,0.00" convBoundary="-1000.00,-1000.00,1000.00,1000.00" origBoundary="-10000000000.00,-10000000000.00,10000000000.00,10000000000.00" projParameter="!"/>

    <edge id=":2_0" function="internal">
        <lane id=":2_0_0" index="0" speed="6.51" length="9.03" shape="-8.00,13.60 -8.35,11.15 -9.40,9.40 -11.15,8.35 -13.60,8.00"/>
    </edge>
    <edge id=":2_1" function="internal">
        <lane id=":2_1_0" index="0" speed="13.89" length="27.20" shape="-8.00,13.60 -8.00,-13.60"/>
        <lane id=":2_1_1" index="1" speed="13.89" length="27.20" shape="-4.80,13.60 -4.80,-13.60"/>
        <lane id=":2_1_2" index="2" speed="13.89" length="27.20" shape="-1.60,13.60 -1.60,-13.60"/>
    </edge>
    <edge id=":2_4" function="internal">
        <lane id=":2_4_0" index="0" speed="10.36" length="7.98" shape="-1.60,13.60 -0.65,6.95 0.00,5.87"/>
    </edge>
    <edge id=":2_20" function="internal">
        <lane id=":2_20_0" index="0" speed="10.36" length="16.53" shape="0.00,5.87 2.20,2.20 6.95,-0.65 13.60,-1.60"/>
    </edge>
    <edge id=":2_5" function="internal">
        <lane id=":2_5_0" index="0" speed="6.51" length="9.03" shape="13.60,8.00 11.15,8.35 9.40,9.40 8.35,11.15 8.00,13.60"/>
    </edge>
    <edge id=":2_6" function="internal">
        <lane id=":2_6_0" index="0" speed="13.89" length="27.20" shape="13.60,8.00 -13.60,8.00"/>
        <lane id=":2_6_1" index="1" speed="13.89" length="27.20" shape="13.60,4.80 -13.60,4.80"/>
        <lane id=":2_6_2" index="2" speed="13.89" length="27.20" shape="13.60,1.60 -13.60,1.60"/>
    </edge>
    <edge id=":2_9" function="internal">
        <lane id=":2_9_0" index="0" speed="10.36" length="7.98" shape="13.60,1.60 6.95,0.65 5.87,-0.00"/>
    </edge>
    <edge id=":2_21" function="internal">
        <lane id=":2_21_0" index="0" speed="10.36" length="16.53" shape="5.87,-0.00 2.20,-2.20 -0.65,-6.95 -1.60,-13.60"/>
    </edge>
    <edge id=":2_10" function="internal">
        <lane id=":2_10_0" index="0" speed="6.51" length="9.03" shape="8.00,-13.60 8.35,-11.15 9.40,-9.40 11.15,-8.35 13.60,-8.00"/>
    </edge>
    <edge id=":2_11" function="internal">
        <lane id=":2_11_0" index="0" speed="13.89" length="27.20" shape="8.00,-13.60 8.00,13.60"/>
        <lane id=":2_11_1" index="1" speed="13.89" length="27.20" shape="4.80,-13.60 4.80,13.60"/>
        <lane id=":2_11_2" index="2" speed="13.89" length="27.20" shape="1.60,-13.60 1.60,13.60"/>
    </edge>
    <edge id=":2_14" function="internal">
        <lane id=":2_14_0" index="0" speed="10.36" length="7.98" shape="1.60,-13.60 0.65,-6.95 -0.00,-5.87"/>
    </edge>
    <edge id=":2_22" function="internal">
        <lane id=":2_22_0" index="0" speed="10.36" length="16.53" shape="-0.00,-5.87 -2.20,-2.20 -6.95,0.65 -13.60,1.60"/>
    </edge>
    <edge id=":2_15" function="internal">
        <lane id=":2_15_0" index="0" speed="6.51" length="9.03" shape="-13.60,-8.00 -11.15,-8.35 -9.40,-9.40 -8.35,-11.15 -8.00,-13.60"/>
    </edge>
    <edge id=":2_16" function="internal">
        <lane id=":2_16_0" index="0" speed="13.89" length="27.20" shape="-13.60,-8.00 13.60,-8.00"/>
        <lane id=":2_16_1" index="1" speed="13.89" length="27.20" shape="-13.60,-4.80 13.60,-4.80"/>
        <lane id=":2_16_2" index="2" speed="13.89" length="27.20" shape="-13.60,-1.60 13.60,-1.60"/>
    </edge>
    <edge id=":2_19" function="internal">
        <lane id=":2_19_0" index="0" speed="10.36" length="7.98" shape="-13.60,-1.60 -6.95,-0.65 -5.87,0.00"/>
    </edge>
    <edge id=":2_23" function="internal">
        <lane id=":2_23_0" index="0" speed="10.36" length="16.53" shape="-5.87,0.00 -2.20,2.20 0.65,6.95 1.60,13.60"/>
    </edge>

    <edge id="e1" from="1" to="2" priority="-1">
        <lane id="e1_0" index="0" speed="13.89" length="986.40" shape="-8.00,1000.00 -8.00,13.60"/>
        <lane id="e1_1" index="1" speed="13.89" length="986.40" shape="-4.80,1000.00 -4.80,13.60"/>
        <lane id="e1_2" index="2" speed="13.89" length="986.40" shape="-1.60,1000.00 -1.60,13.60"/>
    </edge>
    <edge id="e2" from="2" to="1" priority="-1">
        <lane id="e2_0" index="0" speed="13.89" length="986.40" shape="8.00,13.60 8.00,1000.00"/>
        <lane id="e2_1" index="1" speed="13.89" length="986.40" shape="4.80,13.60 4.80,1000.00"/>
        <lane id="e2_2" index="2" speed="13.89" length="986.40" shape="1.60,13.60 1.60,1000.00"/>
    </edge>
    <edge id="e3" from="2" to="4" priority="-1">
        <lane id="e3_0" index="0" speed="13.89" length="986.40" shape="-13.60,8.00 -1000.00,8.00"/>
        <lane id="e3_1" index="1" speed="13.89" length="986.40" shape="-13.60,4.80 -1000.00,4.80"/>
        <lane id="e3_2" index="2" speed="13.89" length="986.40" shape="-13.60,1.60 -1000.00,1.60"/>
    </edge>
    <edge id="e4" from="4" to="2" priority="-1">
        <lane id="e4_0" index="0" speed="13.89" length="986.40" shape="-1000.00,-8.00 -13.60,-8.00"/>
        <lane id="e4_1" index="1" speed="13.89" length="986.40" shape="-1000.00,-4.80 -13.60,-4.80"/>
        <lane id="e4_2" index="2" speed="13.89" length="986.40" shape="-1000.00,-1.60 -13.60,-1.60"/>
    </edge>
    <edge id="e5" from="5" to="2" priority="-1">
        <lane id="e5_0" index="0" speed="13.89" length="986.40" shape="1000.00,8.00 13.60,8.00"/>
        <lane id="e5_1" index="1" speed="13.89" length="986.40" shape="1000.00,4.80 13.60,4.80"/>
        <lane id="e5_2" index="2" speed="13.89" length="986.40" shape="1000.00,1.60 13.60,1.60"/>
    </edge>
    <edge id="e6" from="2" to="5" priority="-1">
        <lane id="e6_0" index="0" speed="13.89" length="986.40" shape="13.60,-8.00 1000.00,-8.00"/>
        <lane id="e6_1" index="1" speed="13.89" length="986.40" shape="13.60,-4.80 1000.00,-4.80"/>
        <lane id="e6_2" index="2" speed="13.89" length="986.40" shape="13.60,-1.60 1000.00,-1.60"/>
    </edge>
    <edge id="e7" from="2" to="3" priority="-1">
        <lane id="e7_0" index="0" speed="13.89" length="986.40" shape="-8.00,-13.60 -8.00,-1000.00"/>
        <lane id="e7_1" index="1" speed="13.89" length="986.40" shape="-4.80,-13.60 -4.80,-1000.00"/>
        <lane id="e7_2" index="2" speed="13.89" length="986.40" shape="-1.60,-13.60 -1.60,-1000.00"/>
    </edge>
    <edge id="e8" from="3" to="2" priority="-1">
        <lane id="e8_0" index="0" speed="13.89" length="986.40" shape="8.00,-1000.00 8.00,-13.60"/>
        <lane id="e8_1" index="1" speed="13.89" length="986.40" shape="4.80,-1000.00 4.80,-13.60"/>
        <lane id="e8_2" index="2" speed="13.89" length="986.40" shape="1.60,-1000.00 1.60,-13.60"/>
    </edge>

    <tlLogic id="2" type="static" programID="0" offset="0">
        <phase duration="42" state="GGGGgrrrrrGGGGgrrrrr"/>
        <phase duration="3"  state="yyyyyrrrrryyyyyrrrrr"/>
        <phase duration="42" state="rrrrrGGGGgrrrrrGGGGg"/>
        <phase duration="3"  state="rrrrryyyyyrrrrryyyyy"/>
    </tlLogic>

    <junction id="1" type="dead_end" x="0.00" y="1000.00" incLanes="e2_0 e2_1 e2_2" intLanes="" shape="0.00,1000.00 9.60,1000.00 0.00,1000.00"/>
    <junction id="2" type="traffic_light" x="0.00" y="0.00" incLanes="e1_0 e1_1 e1_2 e5_0 e5_1 e5_2 e8_0 e8_1 e8_2 e4_0 e4_1 e4_2" intLanes=":2_0_0 :2_1_0 :2_1_1 :2_1_2 :2_20_0 :2_5_0 :2_6_0 :2_6_1 :2_6_2 :2_21_0 :2_10_0 :2_11_0 :2_11_1 :2_11_2 :2_22_0 :2_15_0 :2_16_0 :2_16_1 :2_16_2 :2_23_0" shape="-9.60,13.60 9.60,13.60 10.04,11.38 10.60,10.60 11.38,10.04 12.38,9.71 13.60,9.60 13.60,-9.60 11.38,-10.04 10.60,-10.60 10.04,-11.38 9.71,-12.38 9.60,-13.60 -9.60,-13.60 -10.04,-11.38 -10.60,-10.60 -11.38,-10.04 -12.38,-9.71 -13.60,-9.60 -13.60,9.60 -11.38,10.04 -10.60,10.60 -10.04,11.38 -9.71,12.38">
        <request index="0"  response="00000000000000000000" foes="00000000000111000000" cont="0"/>
        <request index="1"  response="10000000001000000000" foes="11111100001111000000" cont="0"/>
        <request index="2"  response="10000000001000000000" foes="11111100001111000000" cont="0"/>
        <request index="3"  response="10000000001000000000" foes="11111100001111000000" cont="0"/>
        <request index="4"  response="10000011101000000000" foes="11110011101111000000" cont="1"/>
        <request index="5"  response="00000011100000000000" foes="00000011100000000000" cont="0"/>
        <request index="6"  response="00000111100000011111" foes="10000111100000011111" cont="0"/>
        <request index="7"  response="00000111100000011111" foes="10000111100000011111" cont="0"/>
        <request index="8"  response="00000111100000011111" foes="10000111100000011111" cont="0"/>
        <request index="9"  response="01110111100000011110" foes="01110111100000011110" cont="1"/>
        <request index="10" response="00000000000000000000" foes="01110000000000000000" cont="0"/>
        <request index="11" response="10000000001000000000" foes="11110000001111110000" cont="0"/>
        <request index="12" response="10000000001000000000" foes="11110000001111110000" cont="0"/>
        <request index="13" response="10000000001000000000" foes="11110000001111110000" cont="0"/>
        <request index="14" response="10000000001000001110" foes="11110000001111001110" cont="1"/>
        <request index="15" response="00000000000000001110" foes="00000000000000001110" cont="0"/>
        <request index="16" response="00000111110000011110" foes="00000111111000011110" cont="0"/>
        <request index="17" response="00000111110000011110" foes="00000111111000011110" cont="0"/>
        <request index="18" response="00000111110000011110" foes="00000111111000011110" cont="0"/>
        <request index="19" response="00000111100111011110" foes="00000111100111011110" cont="1"/>
    </junction>
    <junction id="3" type="dead_end" x="0.00" y="-1000.00" incLanes="e7_0 e7_1 e7_2" intLanes="" shape="0.00,-1000.00 -9.60,-1000.00 0.00,-1000.00"/>
    <junction id="4" type="dead_end" x="-1000.00" y="0.00" incLanes="e3_0 e3_1 e3_2" intLanes="" shape="-1000.00,0.00 -1000.00,9.60 -1000.00,0.00"/>
    <junction id="5" type="dead_end" x="1000.00" y="0.00" incLanes="e6_0 e6_1 e6_2" intLanes="" shape="1000.00,0.00 1000.00,-9.60 1000.00,0.00"/>

    <junction id=":2_20_0" type="internal" x="0.00" y="5.87" incLanes=":2_4_0 e8_0 e8_1 e8_2" intLanes=":2_6_0 :2_6_1 :2_6_2 :2_9_0 :2_10_0 :2_11_0 :2_11_1 :2_11_2 :2_16_0 :2_16_1 :2_16_2 :2_19_0"/>
    <junction id=":2_21_0" type="internal" x="5.87" y="-0.00" incLanes=":2_9_0 e4_0 e4_1 e4_2" intLanes=":2_1_0 :2_1_1 :2_1_2 :2_4_0 :2_11_0 :2_11_1 :2_11_2 :2_14_0 :2_15_0 :2_16_0 :2_16_1 :2_16_2"/>
    <junction id=":2_22_0" type="internal" x="-0.00" y="-5.87" incLanes=":2_14_0 e1_0 e1_1 e1_2" intLanes=":2_0_0 :2_1_0 :2_1_1 :2_1_2 :2_6_0 :2_6_1 :2_6_2 :2_9_0 :2_16_0 :2_16_1 :2_16_2 :2_19_0"/>
    <junction id=":2_23_0" type="internal" x="-5.87" y="0.00" incLanes=":2_19_0 e5_0 e5_1 e5_2" intLanes=":2_1_0 :2_1_1 :2_1_2 :2_4_0 :2_5_0 :2_6_0 :2_6_1 :2_6_2 :2_11_0 :2_11_1 :2_11_2 :2_14_0"/>

    <connection from="e1" to="e3" fromLane="0" toLane="0" via=":2_0_0" tl="2" linkIndex="15" dir="r" state="O"/>
    <connection from="e1" to="e7" fromLane="0" toLane="0" via=":2_1_0" tl="2" linkIndex="16" dir="s" state="O"/>
    <connection from="e1" to="e7" fromLane="1" toLane="1" via=":2_1_1" tl="2" linkIndex="17" dir="s" state="O"/>
    <connection from="e1" to="e7" fromLane="2" toLane="2" via=":2_1_2" tl="2" linkIndex="18" dir="s" state="O"/>
    <connection from="e1" to="e6" fromLane="2" toLane="2" via=":2_4_0" tl="2" linkIndex="19" dir="l" state="o"/>
    <connection from="e4" to="e7" fromLane="0" toLane="0" via=":2_15_0" tl="2" linkIndex="10" dir="r" state="o"/>
    <connection from="e4" to="e6" fromLane="0" toLane="0" via=":2_16_0" tl="2" linkIndex="11" dir="s" state="o"/>
    <connection from="e4" to="e6" fromLane="1" toLane="1" via=":2_16_1" tl="2" linkIndex="12" dir="s" state="o"/>
    <connection from="e4" to="e6" fromLane="2" toLane="2" via=":2_16_2" tl="2" linkIndex="13" dir="s" state="o"/>
    <connection from="e4" to="e2" fromLane="2" toLane="2" via=":2_19_0" tl="2" linkIndex="14" dir="l" state="o"/>
    <connection from="e5" to="e2" fromLane="0" toLane="0" via=":2_5_0" tl="2" linkIndex="0" dir="r" state="o"/>
    <connection from="e5" to="e3" fromLane="0" toLane="0" via=":2_6_0" tl="2" linkIndex="1" dir="s" state="o"/>
    <connection from="e5" to="e3" fromLane="1" toLane="1" via=":2_6_1" tl="2" linkIndex="2" dir="s" state="o"/>
    <connection from="e5" to="e3" fromLane="2" toLane="2" via=":2_6_2" tl="2" linkIndex="3" dir="s" state="o"/>
    <connection from="e5" to="e7" fromLane="2" toLane="2" via=":2_9_0" tl="2" linkIndex="4" dir="l" state="o"/>
    <connection from="e8" to="e6" fromLane="0" toLane="0" via=":2_10_0" tl="2" linkIndex="5" dir="r" state="O"/>
    <connection from="e8" to="e2" fromLane="0" toLane="0" via=":2_11_0" tl="2" linkIndex="6" dir="s" state="O"/>
    <connection from="e8" to="e2" fromLane="1" toLane="1" via=":2_11_1" tl="2" linkIndex="7" dir="s" state="O"/>
    <connection from="e8" to="e2" fromLane="2" toLane="2" via=":2_11_2" tl="2" linkIndex="8" dir="s" state="O"/>
    <connection from="e8" to="e3" fromLane="2" toLane="2" via=":2_14_0" tl="2" linkIndex="9" dir="l" state="o"/>

    <connection from=":2_0" to="e3" fromLane="0" toLane="0" dir="r" state="M"/>
    <connection from=":2_1" to="e7" fromLane="0" toLane="0" dir="s" state="M"/>
    <connection from=":2_1" to="e7" fromLane="1" toLane="1" dir="s" state="M"/>
    <connection from=":2_1" to="e7" fromLane="2" toLane="2" dir="s" state="M"/>
    <connection from=":2_4" to="e6" fromLane="0" toLane="2" via=":2_20_0" dir="l" state="m"/>
    <connection from=":2_20" to="e6" fromLane="0" toLane="2" dir="l" state="M"/>
    <connection from=":2_5" to="e2" fromLane="0" toLane="0" dir="r" state="M"/>
    <connection from=":2_6" to="e3" fromLane="0" toLane="0" dir="s" state="M"/>
    <connection from=":2_6" to="e3" fromLane="1" toLane="1" dir="s" state="M"/>
    <connection from=":2_6" to="e3" fromLane="2" toLane="2" dir="s" state="M"/>
    <connection from=":2_9" to="e7" fromLane="0" toLane="2" via=":2_21_0" dir="l" state="m"/>
    <connection from=":2_21" to="e7" fromLane="0" toLane="2" dir="l" state="M"/>
    <connection from=":2_10" to="e6" fromLane="0" toLane="0" dir="r" state="M"/>
    <connection from=":2_11" to="e2" fromLane="0" toLane="0" dir="s" state="M"/>
    <connection from=":2_11" to="e2" fromLane="1" toLane="1" dir="s" state="M"/>
    <connection from=":2_11" to="e2" fromLane="2" toLane="2" dir="s" state="M"/>
    <connection from=":2_14" to="e3" fromLane="0" toLane="2" via=":2_22_0" dir="l" state="m"/>
    <connection from=":2_22" to="e3" fromLane="0" toLane="2" dir="l" state="M"/>
    <connection from=":2_15" to="e7" fromLane="0" toLane="0" dir="r" state="M"/>
    <connection from=":2_16" to="e6" fromLane="0" toLane="0" dir="s" state="M"/>
    <connection from=":2_16" to="e6" fromLane="1" toLane="1" dir="s" state="M"/>
    <connection from=":2_16" to="e6" fromLane="2" toLane="2" dir="s" state="M"/>
    <connection from=":2_19" to="e2" fromLane="0" toLane="2" via=":2_23_0" dir="l" state="m"/>
    <connection from=":2_23" to="e2" fromLane="0" toLane="2" dir="l" state="M"/>

</net>
